&HEAD CHID='propane_dx_1p25cm_L_20cm', TITLE='UMD Line Burner, propane' /

&MULT ID='m1', DX=0.425,DY=0.30,DZ=0.30, I_UPPER=1,J_UPPER=1,K_UPPER=4/ 20 meshes
&MESH IJK=34,24,24, XB=-0.425,0.0,-0.30,0,-0.0125,0.2875, MULT_ID='m1'/

&MULT ID='m2', DY=1.30,DZ=0.75, J_UPPER=1, K_UPPER=1 / 4 meshes
&MESH IJK=34,24,20, XB=-0.425,0.425,-1.00,-0.30,-0.0125,0.7375, MULT_ID='m2'/

&TIME T_BEGIN=-5., T_END=60. /

&DUMP DT_DEVC=1, DT_HRR=1 /

&MISC SIMULATION_MODE='LES'/

&RADI NUMBER_RADIATION_ANGLES=400, ANGLE_INCREMENT=20, PATH_LENGTH=0.2, TRI_MODEL=T, TRI_VERSION=3 /

&SPEC ID='NITROGEN' /

&REAC RADIATIVE_FRACTION=0.0
      FUEL='PROPANE', N_SIMPLE_CHEMISTRY_REACTIONS=2,
      AIT_EXCLUSION_ZONE=-0.3,0.3,-0.05,0.05,-.05,0.05
      CRITICAL_FLAME_TEMPERATURE = 1447, AUTO_IGNITION_TEMPERATURE=450.
      SOOT_YIELD=0.024, CO_YIELD=0.005 /

&SURF ID='BURNER', SPEC_ID(1)='PROPANE', MASS_FLUX(1)=0.04316, COLOR='RED', TMP_FRONT=500. / HRRPUA=2000 kJ/s/m2

&SURF ID='COFLOW', COLOR='BLUE',
      SPEC_ID(1)='AIR',      MASS_FLUX(1)=0.245, RAMP_MF(1)='O2 RAMP'
      SPEC_ID(2)='NITROGEN', MASS_FLUX(2)=0.257, RAMP_MF(2)='N2 RAMP' /

&RAMP ID='O2 RAMP', T= 0.0, F=1.00 /
&RAMP ID='O2 RAMP', T=60.0, F=1.00 /

! Use for linear X_O2 ramp
&RAMP ID='N2 RAMP', T=                 0, F=                0/
&RAMP ID='N2 RAMP', T= 1.000000000000000, F=0.008090592107394/
&RAMP ID='N2 RAMP', T= 2.000000000000000, F=0.016323548932809/
&RAMP ID='N2 RAMP', T= 3.000000000000000, F=0.024702661474628/
&RAMP ID='N2 RAMP', T= 4.000000000000000, F=0.033231856536214/
&RAMP ID='N2 RAMP', T= 5.000000000000000, F=0.041915202862037/
&RAMP ID='N2 RAMP', T= 6.000000000000000, F=0.050756917609544/
&RAMP ID='N2 RAMP', T= 7.000000000000000, F=0.059761373178392/
&RAMP ID='N2 RAMP', T= 8.000000000000000, F=0.068933104420280/
&RAMP ID='N2 RAMP', T= 9.000000000000000, F=0.078276816254358/
&RAMP ID='N2 RAMP', T=10.000000000000000, F=0.087797391715087/
&RAMP ID='N2 RAMP', T=11.000000000000000, F=0.097499900461465/
&RAMP ID='N2 RAMP', T=12.000000000000000, F=0.107389607778788/
&RAMP ID='N2 RAMP', T=13.000000000000000, F=0.117471984106510/
&RAMP ID='N2 RAMP', T=14.000000000000000, F=0.127752715128455/
&RAMP ID='N2 RAMP', T=15.000000000000000, F=0.138237712464452/
&RAMP ID='N2 RAMP', T=16.000000000000000, F=0.148933125005678/
&RAMP ID='N2 RAMP', T=17.000000000000000, F=0.159845350939340/
&RAMP ID='N2 RAMP', T=18.000000000000000, F=0.170981050512134/
&RAMP ID='N2 RAMP', T=19.000000000000000, F=0.182347159585973/
! ... 41 like lines cut

&OBST XB=-0.25,0.25,-0.025,0.025,-0.0125,0.0, SURF_IDS='BURNER','INERT','INERT' /

&OBST XB=-0.425,0.425,-0.30,-0.25,-0.0125,0.0 /
&OBST XB=-0.425,0.425, 0.25, 0.30,-0.0125,0.0 /

&OBST XB=-0.425,-0.375,-0.25,0.25,-0.0125,0.0 /
&OBST XB= 0.375, 0.425,-0.25,0.25,-0.0125,0.0 /

&MATL ID='KAOWOOL', CONDUCTIVITY=0.07, DENSITY=220, SPECIFIC_HEAT=1.1 /
&SURF ID='CERAMIC BOARD', COLOR='IVORY', MATL_ID='KAOWOOL', THICKNESS=0.05 /
&VENT SURF_ID='CERAMIC BOARD' XB=-0.30,0.30,-0.075,0.075,-0.0124,-0.0124/
&VENT SURF_ID='COFLOW', XB=-0.375,0.375,-0.25,0.25,-0.0125,-0.0125/

&SURF ID='HEAT FLUX WALL', COLOR='INVISIBLE'/
&VENT DB='XMAX',SURF_ID='OPEN'/
&VENT DB='XMIN',SURF_ID='OPEN'/
&VENT DB='YMAX',SURF_ID='HEAT FLUX WALL'/
&VENT DB='YMIN',SURF_ID='HEAT FLUX WALL'/
&VENT DB='ZMAX',SURF_ID='OPEN'/
&VENT DB='ZMIN',SURF_ID='OPEN'/

&SLCF PBY=0.001, QUANTITY = 'VELOCITY', VECTOR=.TRUE./
&SLCF PBY=0.001, QUANTITY = 'TEMPERATURE', CELL_CENTERED=.TRUE./
&SLCF PBY=0.001, QUANTITY = 'HRRPUV', CELL_CENTERED=.TRUE./
&SLCF PBY=0.001, QUANTITY = 'MASS FRACTION', SPEC_ID='SOOT', CELL_CENTERED=.TRUE./
&SLCF PBY=0.001, QUANTITY = 'TRI CORRECTION', CELL_CENTERED=.TRUE./
&SLCF PBY=0.001, QUANTITY = 'FLAME TEMPERATURE', CELL_CENTERED=.TRUE./
&SLCF PBY=0.001, QUANTITY = 'RADIATION LOSS', CELL_CENTERED=.TRUE./
&SLCF PBY=0.001, QUANTITY = 'ABSORPTION COEFFICIENT', CELL_CENTERED=.TRUE./
&SLCF PBY=0.001, QUANTITY = 'FLAME VOLUME FRACTION', CELL_CENTERED=.TRUE./
&SLCF PBY=0.001, QUANTITY = 'EXTINCTION', CELL_CENTERED=.TRUE./

&SLCF PBX=0.001, QUANTITY = 'VELOCITY', VECTOR=.TRUE./
&SLCF PBX=0.001, QUANTITY = 'TEMPERATURE', CELL_CENTERED=.TRUE./
&SLCF PBX=0.001, QUANTITY = 'HRRPUV', CELL_CENTERED=.TRUE./
&SLCF PBX=0.001, QUANTITY = 'MASS FRACTION', SPEC_ID='SOOT', CELL_CENTERED=.TRUE./
&SLCF PBX=0.001, QUANTITY = 'TRI CORRECTION', CELL_CENTERED=.TRUE./
&SLCF PBX=0.001, QUANTITY = 'FLAME TEMPERATURE', CELL_CENTERED=.TRUE./
&SLCF PBX=0.001, QUANTITY = 'RADIATION LOSS', CELL_CENTERED=.TRUE./
&SLCF PBX=0.001, QUANTITY = 'ABSORPTION COEFFICIENT', CELL_CENTERED=.TRUE./
&SLCF PBX=0.001, QUANTITY = 'FLAME VOLUME FRACTION', CELL_CENTERED=.TRUE./
&SLCF PBX=0.001, QUANTITY = 'EXTINCTION', CELL_CENTERED=.TRUE./

&DEVC ID = 'XO2',   XYZ = 0,0.15,-0.0124, QUANTITY='VOLUME FRACTION', SPEC_ID='OXYGEN', TIME_AVERAGED=F/
&DEVC ID = 'qrad1', XB = -0.20,0.20, 1.0, 1.0,0.05,0.30, QUANTITY='GAUGE HEAT FLUX', IOR=-2, SPATIAL_STATISTIC='MEAN' /
&DEVC ID = 'qrad2', XB = -0.10,0.10,-1.0,-1.0,0.08,0.28, QUANTITY='GAUGE HEAT FLUX', IOR= 2, SPATIAL_STATISTIC='MEAN' /
&DEVC ID = 'Lf', XB=0,0,0,0,0,0.987, POINTS=50, QUANTITY='HRRPUL', TIME_HISTORY=T/

&TAIL/
